Version 4
SHEET 1 1444 916
WIRE 1376 80 1376 32
WIRE 1376 80 880 80
WIRE 96 96 -96 96
WIRE 288 96 96 96
WIRE 416 96 288 96
WIRE -96 144 -96 96
WIRE 96 144 96 96
WIRE 288 144 288 96
WIRE 96 208 -96 208
WIRE 288 208 96 208
WIRE 1376 240 1376 80
WIRE -176 256 -176 144
WIRE -96 256 -96 208
WIRE 16 256 16 144
WIRE 96 256 96 208
WIRE 208 256 208 144
WIRE 288 256 288 208
WIRE 752 256 704 256
WIRE 880 256 880 80
WIRE 880 256 832 256
WIRE 912 256 880 256
WIRE 1056 256 992 256
WIRE 96 320 -96 320
WIRE 288 320 96 320
WIRE 704 320 704 256
WIRE 704 320 480 320
WIRE 1056 320 1056 256
WIRE 1200 320 1056 320
WIRE -176 368 -176 256
WIRE -96 368 -96 320
WIRE 16 368 16 256
WIRE 96 368 96 320
WIRE 208 368 208 256
WIRE 288 368 288 320
WIRE 704 368 704 320
WIRE 752 368 704 368
WIRE 864 368 832 368
WIRE 912 368 864 368
WIRE 1056 368 1056 320
WIRE 1056 368 992 368
WIRE 1200 400 1200 320
WIRE 208 448 208 368
WIRE 480 464 480 320
WIRE 864 464 864 368
WIRE 208 576 208 528
WIRE 864 576 864 544
WIRE 1376 576 1376 320
WIRE 1376 576 864 576
WIRE 864 608 864 576
WIRE 1376 624 1376 576
WIRE 480 800 480 544
WIRE 864 800 864 688
WIRE 864 800 480 800
WIRE 1200 800 1200 480
WIRE 1200 800 864 800
WIRE 1376 896 1376 704
FLAG 208 576 0
FLAG 1376 896 0
FLAG 1376 32 VDD
SYMBOL res 304 128 R90
WINDOW 0 0 56 VBottom 2
WINDOW 3 32 56 VTop 2
SYMATTR InstName R1
SYMBOL res 112 128 R90
WINDOW 0 0 56 VBottom 2
WINDOW 3 32 56 VTop 2
SYMATTR InstName R2
SYMBOL res -80 128 R90
WINDOW 0 0 56 VBottom 2
WINDOW 3 32 56 VTop 2
SYMATTR InstName R3
SYMBOL res -80 240 R90
WINDOW 0 0 56 VBottom 2
WINDOW 3 32 56 VTop 2
SYMATTR InstName R4
SYMBOL res 112 240 R90
WINDOW 0 0 56 VBottom 2
WINDOW 3 32 56 VTop 2
SYMATTR InstName R5
SYMBOL res 304 240 R90
WINDOW 0 0 56 VBottom 2
WINDOW 3 32 56 VTop 2
SYMATTR InstName R6
SYMBOL res 304 352 R90
WINDOW 0 0 56 VBottom 2
WINDOW 3 32 56 VTop 2
SYMATTR InstName R7
SYMBOL res 112 352 R90
WINDOW 0 0 56 VBottom 2
WINDOW 3 32 56 VTop 2
SYMATTR InstName R8
SYMBOL res -80 352 R90
WINDOW 0 0 56 VBottom 2
WINDOW 3 32 56 VTop 2
SYMATTR InstName R9
SYMBOL res 192 432 R0
SYMATTR InstName R10
SYMBOL res 1008 240 R90
WINDOW 0 0 56 VBottom 2
WINDOW 3 32 56 VTop 2
SYMATTR InstName R11
SYMBOL res 848 240 R90
WINDOW 0 0 56 VBottom 2
WINDOW 3 32 56 VTop 2
SYMATTR InstName R12
SYMBOL res 848 352 R90
WINDOW 0 0 56 VBottom 2
WINDOW 3 32 56 VTop 2
SYMATTR InstName R13
SYMBOL res 1008 352 R90
WINDOW 0 0 56 VBottom 2
WINDOW 3 32 56 VTop 2
SYMATTR InstName R14
SYMBOL res 848 448 R0
SYMATTR InstName R15
SYMBOL res 848 592 R0
SYMATTR InstName R16
SYMBOL res 464 448 R0
SYMATTR InstName R17
SYMBOL res 1184 384 R0
SYMATTR InstName R18
SYMBOL res 1360 224 R0
SYMATTR InstName R19
SYMBOL res 1360 608 R0
SYMATTR InstName R20
